.SUBCKT ZVP4105A D G S GND
.MODEL PCH PMOS LEVEL=1 VTO=-1.709 RS=3.091 RD=0.979 IS=1E-15 KP=0.146
+CBD=12P PB=1
.ENDS ZVP4105A
